# Demo

this my first project!
new line.

## subhead2

this is subheader
