# Demo

this my first project!
new line.
